<?xml version="1.0" encoding="UTF-8"?>
<flow xmlns="http://www.springframework.org/schema/webflow"
	xmlns:xsi="http://www.w3.org/2001/XMLSchema-instance"
	xsi:schemaLocation="http://www.springframework.org/schema/webflow
                          http://www.springframework.org/schema/webflow/spring-webflow.xsd">

	<var name="order" class="com.dasilva.pizza.domain.Order"  />

	<subflow-state id="identifyCustomer"
		subflow="pizza/customer">
		<output name="customer" value="order.customer" />
		<transition on="customerReady" to="buildOrder"></transition>
	</subflow-state>

	<subflow-state id="buildOrder" subflow="pizza/order">
		<input name="order" value="order" />
		<transition on="orderCreated" to="takePayment"></transition>
	</subflow-state>

	<subflow-state id="takePayment" subflow="pizza/payment">
		<input name="order" value="order" />
		<transition on="paymentTaken" to="saveOrder"></transition>
	</subflow-state>

	<action-state id="saveOrder">
		<evaluate expression="pizzaFlowActions.saveOrder(order)" />
		<transition to="thankCustomer"></transition>
	</action-state>

	<view-state id="thankCustomer"
		view="views/thankCustomer.jsp">
		<transition to="endState" />
	</view-state>

	<end-state id="endState"></end-state>

	<global-transitions>
		<transition on="cancel" to="endState"></transition>
	</global-transitions>



</flow>
