<?xml version="1.0" encoding="UTF-8"?>
<flow xmlns="http://www.springframework.org/schema/webflow"
	xmlns:xsi="http://www.w3.org/2001/XMLSchema-instance"
	xsi:schemaLocation="http://www.springframework.org/schema/webflow
                          http://www.springframework.org/schema/webflow/spring-webflow.xsd">



	<var name="customer" class="com.dasilva.pizza.domain.Customer" />

	<view-state id="welcome" view="views/welcome.jsp">
		<transition on="phoneEntered" to="lookupcustomer"></transition>
	</view-state>
	
	<action-state id="lookupcustomer">
		<!-- buscar al cliente -->
		<evaluate result ="customer" expression="pizzaFlowActions.lookUpCustomer(requestParameters.phoneNumber)"/>
		<transition to="registrationForm" on-exception="java.lang.Exception"/>
		<transition to="customerReady"/>		
	</action-state> 
	
	<view-state id="registrationForm" view="views/registrationForm.jsp" model="customer">	
		<!-- registrar un usuario -->
		<on-entry>
			<evaluate expression="customer.phoneNumber= requestParameters.phoneNumber"/>
		</on-entry>
		<transition on="submit" to="checkDeliveryArea" />
	</view-state>
	
	<decision-state id="checkDeliveryArea">	
		<!-- chequear zona de reparto -->
		<if test= "pizzaFlowActions.checkDeliveryArea(customer.zipCode)"
			then="addCustomer" else = "deliveryWarning"/>	
	</decision-state>
	
	<view-state id="deliveryWarning" view="views/deliveryWarning.jsp"><!-- mostrar adevertencia fuera de reparto -->
		<transition on="accept" to="addCustomer"></transition>
	</view-state>
	
	<action-state id="addCustomer">
		<!-- añadir el cliente -->
		<evaluate expression="pizzaFlowActions.addCustomer(customer)"></evaluate>
		<transition to="customerReady"/>
	</action-state>
	
	<end-state id="cancel"></end-state>
	
	<end-state id="customerReady">
		<output name="customer"/>
	</end-state>
	
	<global-transitions>
		<transition on="cancel" to="cancel"></transition>
	</global-transitions>

</flow>
